gleevec.pdb


 31 34  0  0  0  0  0  0  0  0999 V2000
   15.5883   54.0573   12.6061 C   0  0  0  0  0  0  0  0  0  0  0  0
   15.6270   53.2270   13.7755 C   0  0  0  0  0  0  0  0  0  0  0  0
   16.6413   52.2283   13.9101 C   0  0  0  0  0  0  0  0  0  0  0  0
   17.5599   52.0808   12.8907 C   0  0  0  0  0  0  0  0  0  0  0  0
   17.5252   52.8931   11.7476 C   0  0  0  0  0  0  0  0  0  0  0  0
   16.5293   53.8825   11.5795 C   0  0  0  0  0  0  0  0  0  0  0  0
   16.6042   54.6729   10.2909 C   0  0  0  0  0  0  0  0  0  0  0  0
   16.6999   51.3567   15.0111 N   0  0  0  0  0  0  0  0  0  0  0  0
   15.7490   50.5978   15.5501 C   0  0  0  0  0  0  0  0  0  0  0  0
   14.5887   50.5536   15.1547 O   0  0  0  0  0  0  0  0  0  0  0  0
   17.5788   51.2987   15.4507 H   0  0  0  0  0  0  0  0  0  0  0  0
   16.1076   49.7063   16.6547 C   0  0  0  0  0  0  0  0  0  0  0  0
   15.0937   48.9528   17.3176 C   0  0  0  0  0  0  0  0  0  0  0  0
   15.4310   48.0761   18.3744 C   0  0  0  0  0  0  0  0  0  0  0  0
   16.7917   47.9573   18.7547 C   0  0  0  0  0  0  0  0  0  0  0  0
   17.7446   48.6901   18.1000 N   0  0  0  0  0  0  0  0  0  0  0  0
   17.4379   49.5467   17.0762 C   0  0  0  0  0  0  0  0  0  0  0  0
   14.5706   55.0131   12.5347 N   0  0  0  0  0  0  0  0  0  0  0  0
   13.6666   54.7116   12.2876 H   0  0  0  0  0  0  0  0  0  0  0  0
   13.9429   58.5563   12.8365 C   0  0  0  0  0  0  0  0  0  0  0  0
   13.7944   57.2202   12.5929 N   0  0  0  0  0  0  0  0  0  0  0  0
   14.7575   56.3229   12.7849 C   0  0  0  0  0  0  0  0  0  0  0  0
   15.9706   56.7619   13.2528 N   0  0  0  0  0  0  0  0  0  0  0  0
   16.2055   58.0707   13.5226 C   0  0  0  0  0  0  0  0  0  0  0  0
   15.1828   59.0123   13.3181 C   0  0  0  0  0  0  0  0  0  0  0  0
   10.6360   59.9357   11.5960 C   0  0  0  0  0  0  0  0  0  0  0  0
   10.7065   61.2219   12.1683 C   0  0  0  0  0  0  0  0  0  0  0  0
   11.7834   61.5809   12.9063 N   0  0  0  0  0  0  0  0  0  0  0  0
   12.8270   60.7369   13.1281 C   0  0  0  0  0  0  0  0  0  0  0  0
   12.8206   59.4282   12.5815 C   0  0  0  0  0  0  0  0  0  0  0  0
   11.7081   59.0332   11.8087 C   0  0  0  0  0  0  0  0  0  0  0  0
 26 27  2  0  0  0
 26 31  1  0  0  0
 27 28  1  0  0  0
 28 29  2  0  0  0
 29 30  1  0  0  0
 30 31  2  0  0  0
 30 20  1  0  0  0
 20 21  2  0  0  0
 20 25  1  0  0  0
 21 22  2  0  0  0
 22 23  2  0  0  0
 22 18  1  0  0  0
 23 24  1  0  0  0
 24 25  2  0  0  0
 18  1  1  0  0  0
  1  2  2  0  0  0
  1  6  1  0  0  0
  2  3  1  0  0  0
  3  4  2  0  0  0
  3  8  1  0  0  0
  4  5  1  0  0  0
  5  6  2  0  0  0
  6  7  1  0  0  0
  8  9  1  0  0  0
  9 12  1  0  0  0
  9 10  2  0  0  0
 12 13  2  0  0  0
 12 17  1  0  0  0
 13 14  1  0  0  0
 14 15  2  0  0  0
 15 16  1  0  0  0
 16 17  2  0  0  0
 18 19  1  0  0  0
  8 11  1  0  0  0
M  END
> <minimizedAffinity>
-10.98776

$$$$
gleevec.pdb


 31 34  0  0  0  0  0  0  0  0999 V2000
   16.7443   53.2115   13.6482 C   0  0  0  0  0  0  0  0  0  0  0  0
   15.7557   54.2470   13.7407 C   0  0  0  0  0  0  0  0  0  0  0  0
   15.3796   54.9829   12.5739 C   0  0  0  0  0  0  0  0  0  0  0  0
   15.9967   54.6805   11.3771 C   0  0  0  0  0  0  0  0  0  0  0  0
   16.9620   53.6669   11.2840 C   0  0  0  0  0  0  0  0  0  0  0  0
   17.3631   52.9280   12.4207 C   0  0  0  0  0  0  0  0  0  0  0  0
   18.4246   51.8772   12.1760 C   0  0  0  0  0  0  0  0  0  0  0  0
   14.4516   56.0376   12.6142 N   0  0  0  0  0  0  0  0  0  0  0  0
   14.6419   57.3331   12.8512 C   0  0  0  0  0  0  0  0  0  0  0  0
   15.7292   57.8392   13.1087 O   0  0  0  0  0  0  0  0  0  0  0  0
   13.5179   55.7783   12.4406 H   0  0  0  0  0  0  0  0  0  0  0  0
   13.4969   58.2393   12.7456 C   0  0  0  0  0  0  0  0  0  0  0  0
   13.4528   59.4240   13.5392 C   0  0  0  0  0  0  0  0  0  0  0  0
   12.3598   60.3148   13.4328 C   0  0  0  0  0  0  0  0  0  0  0  0
   11.3178   60.0106   12.5208 C   0  0  0  0  0  0  0  0  0  0  0  0
   11.3866   58.8684   11.7697 N   0  0  0  0  0  0  0  0  0  0  0  0
   12.4350   57.9916   11.8602 C   0  0  0  0  0  0  0  0  0  0  0  0
   17.0687   52.5310   14.8255 N   0  0  0  0  0  0  0  0  0  0  0  0
   17.8702   52.8160   15.3211 H   0  0  0  0  0  0  0  0  0  0  0  0
   16.1590   49.5912   16.7148 C   0  0  0  0  0  0  0  0  0  0  0  0
   16.8584   50.6405   16.1888 N   0  0  0  0  0  0  0  0  0  0  0  0
   16.3466   51.5076   15.3195 C   0  0  0  0  0  0  0  0  0  0  0  0
   15.0426   51.3400   14.9260 N   0  0  0  0  0  0  0  0  0  0  0  0
   14.2741   50.3265   15.3986 C   0  0  0  0  0  0  0  0  0  0  0  0
   14.8218   49.4152   16.3172 C   0  0  0  0  0  0  0  0  0  0  0  0
   16.9330   46.7546   19.1089 C   0  0  0  0  0  0  0  0  0  0  0  0
   18.2575   47.1037   19.4414 C   0  0  0  0  0  0  0  0  0  0  0  0
   18.8284   48.2048   18.8985 N   0  0  0  0  0  0  0  0  0  0  0  0
   18.1676   49.0103   18.0239 C   0  0  0  0  0  0  0  0  0  0  0  0
   16.8323   48.7172   17.6462 C   0  0  0  0  0  0  0  0  0  0  0  0
   16.2176   47.5744   18.2004 C   0  0  0  0  0  0  0  0  0  0  0  0
 26 27  2  0  0  0
 26 31  1  0  0  0
 27 28  1  0  0  0
 28 29  2  0  0  0
 29 30  1  0  0  0
 30 31  2  0  0  0
 30 20  1  0  0  0
 20 21  2  0  0  0
 20 25  1  0  0  0
 21 22  2  0  0  0
 22 23  2  0  0  0
 22 18  1  0  0  0
 23 24  1  0  0  0
 24 25  2  0  0  0
 18  1  1  0  0  0
  1  2  2  0  0  0
  1  6  1  0  0  0
  2  3  1  0  0  0
  3  4  2  0  0  0
  3  8  1  0  0  0
  4  5  1  0  0  0
  5  6  2  0  0  0
  6  7  1  0  0  0
  8  9  1  0  0  0
  9 12  1  0  0  0
  9 10  2  0  0  0
 12 13  2  0  0  0
 12 17  1  0  0  0
 13 14  1  0  0  0
 14 15  2  0  0  0
 15 16  1  0  0  0
 16 17  2  0  0  0
 18 19  1  0  0  0
  8 11  1  0  0  0
M  END
> <minimizedAffinity>
-9.75203

$$$$
gleevec.pdb


 31 34  0  0  0  0  0  0  0  0999 V2000
   16.0269   53.5599   13.5805 C   0  0  0  0  0  0  0  0  0  0  0  0
   15.0271   54.5881   13.6163 C   0  0  0  0  0  0  0  0  0  0  0  0
   14.9206   55.5200   12.5371 C   0  0  0  0  0  0  0  0  0  0  0  0
   15.8039   55.4100   11.4823 C   0  0  0  0  0  0  0  0  0  0  0  0
   16.7808   54.4040   11.4443 C   0  0  0  0  0  0  0  0  0  0  0  0
   16.9187   53.4738   12.5000 C   0  0  0  0  0  0  0  0  0  0  0  0
   18.0250   52.4545   12.3327 C   0  0  0  0  0  0  0  0  0  0  0  0
   13.9915   56.5745   12.5403 N   0  0  0  0  0  0  0  0  0  0  0  0
   14.1234   57.8265   12.9710 C   0  0  0  0  0  0  0  0  0  0  0  0
   15.1401   58.2800   13.4859 O   0  0  0  0  0  0  0  0  0  0  0  0
   13.1080   56.3529   12.1667 H   0  0  0  0  0  0  0  0  0  0  0  0
   13.0091   58.7555   12.7733 C   0  0  0  0  0  0  0  0  0  0  0  0
   12.9035   59.9221   13.5876 C   0  0  0  0  0  0  0  0  0  0  0  0
   11.8410   60.8346   13.3940 C   0  0  0  0  0  0  0  0  0  0  0  0
   10.8918   60.5706   12.3744 C   0  0  0  0  0  0  0  0  0  0  0  0
   11.0185   59.4451   11.6059 N   0  0  0  0  0  0  0  0  0  0  0  0
   12.0385   58.5476   11.7796 C   0  0  0  0  0  0  0  0  0  0  0  0
   16.0799   52.6822   14.6672 N   0  0  0  0  0  0  0  0  0  0  0  0
   16.6914   52.8966   15.4083 H   0  0  0  0  0  0  0  0  0  0  0  0
   14.4699   49.7532   16.0343 C   0  0  0  0  0  0  0  0  0  0  0  0
   15.2110   50.8933   15.9010 N   0  0  0  0  0  0  0  0  0  0  0  0
   15.3414   51.5598   14.7572 C   0  0  0  0  0  0  0  0  0  0  0  0
   14.6972   51.0761   13.6462 N   0  0  0  0  0  0  0  0  0  0  0  0
   13.9391   49.9515   13.6881 C   0  0  0  0  0  0  0  0  0  0  0  0
   13.8056   49.2535   14.9003 C   0  0  0  0  0  0  0  0  0  0  0  0
   13.2723   48.5201   19.4140 C   0  0  0  0  0  0  0  0  0  0  0  0
   14.4387   47.8448   19.8268 C   0  0  0  0  0  0  0  0  0  0  0  0
   15.5292   47.8165   19.0249 N   0  0  0  0  0  0  0  0  0  0  0  0
   15.5528   48.4237   17.8078 C   0  0  0  0  0  0  0  0  0  0  0  0
   14.4133   49.1206   17.3310 C   0  0  0  0  0  0  0  0  0  0  0  0
   13.2656   49.1631   18.1508 C   0  0  0  0  0  0  0  0  0  0  0  0
 26 27  2  0  0  0
 26 31  1  0  0  0
 27 28  1  0  0  0
 28 29  2  0  0  0
 29 30  1  0  0  0
 30 31  2  0  0  0
 30 20  1  0  0  0
 20 21  2  0  0  0
 20 25  1  0  0  0
 21 22  2  0  0  0
 22 23  2  0  0  0
 22 18  1  0  0  0
 23 24  1  0  0  0
 24 25  2  0  0  0
 18  1  1  0  0  0
  1  2  2  0  0  0
  1  6  1  0  0  0
  2  3  1  0  0  0
  3  4  2  0  0  0
  3  8  1  0  0  0
  4  5  1  0  0  0
  5  6  2  0  0  0
  6  7  1  0  0  0
  8  9  1  0  0  0
  9 12  1  0  0  0
  9 10  2  0  0  0
 12 13  2  0  0  0
 12 17  1  0  0  0
 13 14  1  0  0  0
 14 15  2  0  0  0
 15 16  1  0  0  0
 16 17  2  0  0  0
 18 19  1  0  0  0
  8 11  1  0  0  0
M  END
> <minimizedAffinity>
-9.47290

$$$$
gleevec.pdb


 31 34  0  0  0  0  0  0  0  0999 V2000
   15.4534   53.2988   12.7564 C   0  0  0  0  0  0  0  0  0  0  0  0
   14.4705   54.3434   12.7854 C   0  0  0  0  0  0  0  0  0  0  0  0
   14.8365   55.6798   12.4324 C   0  0  0  0  0  0  0  0  0  0  0  0
   16.1470   55.9328   12.0811 C   0  0  0  0  0  0  0  0  0  0  0  0
   17.1091   54.9124   12.0500 C   0  0  0  0  0  0  0  0  0  0  0  0
   16.7817   53.5831   12.4031 C   0  0  0  0  0  0  0  0  0  0  0  0
   17.9223   52.5902   12.3398 C   0  0  0  0  0  0  0  0  0  0  0  0
   13.9273   56.7501   12.4872 N   0  0  0  0  0  0  0  0  0  0  0  0
   14.0667   57.9616   13.0195 C   0  0  0  0  0  0  0  0  0  0  0  0
   15.0727   58.3520   13.6027 O   0  0  0  0  0  0  0  0  0  0  0  0
   13.0537   56.5770   12.0675 H   0  0  0  0  0  0  0  0  0  0  0  0
   12.9773   58.9263   12.8579 C   0  0  0  0  0  0  0  0  0  0  0  0
   12.0437   58.7718   11.7903 C   0  0  0  0  0  0  0  0  0  0  0  0
   10.9781   59.6880   11.6350 C   0  0  0  0  0  0  0  0  0  0  0  0
   10.8537   60.7537   12.5618 C   0  0  0  0  0  0  0  0  0  0  0  0
   11.7619   60.8770   13.5784 N   0  0  0  0  0  0  0  0  0  0  0  0
   12.8026   60.0019   13.7441 C   0  0  0  0  0  0  0  0  0  0  0  0
   15.0319   52.0149   13.1144 N   0  0  0  0  0  0  0  0  0  0  0  0
   14.4648   51.5186   12.4810 H   0  0  0  0  0  0  0  0  0  0  0  0
   14.7542   50.1321   16.1831 C   0  0  0  0  0  0  0  0  0  0  0  0
   14.4633   50.7519   15.0008 N   0  0  0  0  0  0  0  0  0  0  0  0
   15.3580   51.4190   14.2770 C   0  0  0  0  0  0  0  0  0  0  0  0
   16.6468   51.4914   14.7428 N   0  0  0  0  0  0  0  0  0  0  0  0
   17.0242   50.9044   15.9065 C   0  0  0  0  0  0  0  0  0  0  0  0
   16.0734   50.2008   16.6650 C   0  0  0  0  0  0  0  0  0  0  0  0
   12.6805   48.4422   18.8705 C   0  0  0  0  0  0  0  0  0  0  0  0
   11.5490   48.1108   18.0981 C   0  0  0  0  0  0  0  0  0  0  0  0
   11.5027   48.4343   16.7842 N   0  0  0  0  0  0  0  0  0  0  0  0
   12.5223   49.0816   16.1583 C   0  0  0  0  0  0  0  0  0  0  0  0
   13.6904   49.4446   16.8763 C   0  0  0  0  0  0  0  0  0  0  0  0
   13.7600   49.1168   18.2469 C   0  0  0  0  0  0  0  0  0  0  0  0
 26 27  2  0  0  0
 26 31  1  0  0  0
 27 28  1  0  0  0
 28 29  2  0  0  0
 29 30  1  0  0  0
 30 31  2  0  0  0
 30 20  1  0  0  0
 20 21  2  0  0  0
 20 25  1  0  0  0
 21 22  2  0  0  0
 22 23  2  0  0  0
 22 18  1  0  0  0
 23 24  1  0  0  0
 24 25  2  0  0  0
 18  1  1  0  0  0
  1  2  2  0  0  0
  1  6  1  0  0  0
  2  3  1  0  0  0
  3  4  2  0  0  0
  3  8  1  0  0  0
  4  5  1  0  0  0
  5  6  2  0  0  0
  6  7  1  0  0  0
  8  9  1  0  0  0
  9 12  1  0  0  0
  9 10  2  0  0  0
 12 13  2  0  0  0
 12 17  1  0  0  0
 13 14  1  0  0  0
 14 15  2  0  0  0
 15 16  1  0  0  0
 16 17  2  0  0  0
 18 19  1  0  0  0
  8 11  1  0  0  0
M  END
> <minimizedAffinity>
-8.91255

$$$$
gleevec.pdb


 31 34  0  0  0  0  0  0  0  0999 V2000
   16.9024   52.5992   13.9800 C   0  0  0  0  0  0  0  0  0  0  0  0
   16.4247   51.9347   15.1583 C   0  0  0  0  0  0  0  0  0  0  0  0
   15.2851   51.0745   15.0818 C   0  0  0  0  0  0  0  0  0  0  0  0
   14.6603   50.9159   13.8615 C   0  0  0  0  0  0  0  0  0  0  0  0
   15.1271   51.5630   12.7078 C   0  0  0  0  0  0  0  0  0  0  0  0
   16.2449   52.4276   12.7519 C   0  0  0  0  0  0  0  0  0  0  0  0
   16.6269   53.0697   11.4356 C   0  0  0  0  0  0  0  0  0  0  0  0
   14.7461   50.4348   16.2112 N   0  0  0  0  0  0  0  0  0  0  0  0
   13.9962   49.3388   16.2943 C   0  0  0  0  0  0  0  0  0  0  0  0
   13.6163   48.6829   15.3299 O   0  0  0  0  0  0  0  0  0  0  0  0
   14.9553   50.8632   17.0726 H   0  0  0  0  0  0  0  0  0  0  0  0
   13.6385   48.8347   17.6216 C   0  0  0  0  0  0  0  0  0  0  0  0
   12.2992   48.9671   18.0948 C   0  0  0  0  0  0  0  0  0  0  0  0
   11.9389   48.4688   19.3680 C   0  0  0  0  0  0  0  0  0  0  0  0
   12.9299   47.8322   20.1572 C   0  0  0  0  0  0  0  0  0  0  0  0
   14.2067   47.7164   19.6777 N   0  0  0  0  0  0  0  0  0  0  0  0
   14.5763   48.1950   18.4487 C   0  0  0  0  0  0  0  0  0  0  0  0
   18.0193   53.4278   14.1223 N   0  0  0  0  0  0  0  0  0  0  0  0
   18.9093   53.0077   14.1469 H   0  0  0  0  0  0  0  0  0  0  0  0
   16.7771   56.8100   13.8831 C   0  0  0  0  0  0  0  0  0  0  0  0
   16.8909   55.4514   13.7929 N   0  0  0  0  0  0  0  0  0  0  0  0
   17.9461   54.7681   14.2276 C   0  0  0  0  0  0  0  0  0  0  0  0
   18.9813   55.4652   14.7984 N   0  0  0  0  0  0  0  0  0  0  0  0
   18.9521   56.8154   14.9298 C   0  0  0  0  0  0  0  0  0  0  0  0
   17.8335   57.5299   14.4688 C   0  0  0  0  0  0  0  0  0  0  0  0
   14.0842   59.3466   13.0518 C   0  0  0  0  0  0  0  0  0  0  0  0
   13.2239   58.5163   12.3054 C   0  0  0  0  0  0  0  0  0  0  0  0
   13.5366   57.2138   12.1078 N   0  0  0  0  0  0  0  0  0  0  0  0
   14.6714   56.6545   12.6076 C   0  0  0  0  0  0  0  0  0  0  0  0
   15.5810   57.4331   13.3678 C   0  0  0  0  0  0  0  0  0  0  0  0
   15.2747   58.7931   13.5863 C   0  0  0  0  0  0  0  0  0  0  0  0
 26 27  2  0  0  0
 26 31  1  0  0  0
 27 28  1  0  0  0
 28 29  2  0  0  0
 29 30  1  0  0  0
 30 31  2  0  0  0
 30 20  1  0  0  0
 20 21  2  0  0  0
 20 25  1  0  0  0
 21 22  2  0  0  0
 22 23  2  0  0  0
 22 18  1  0  0  0
 23 24  1  0  0  0
 24 25  2  0  0  0
 18  1  1  0  0  0
  1  2  2  0  0  0
  1  6  1  0  0  0
  2  3  1  0  0  0
  3  4  2  0  0  0
  3  8  1  0  0  0
  4  5  1  0  0  0
  5  6  2  0  0  0
  6  7  1  0  0  0
  8  9  1  0  0  0
  9 12  1  0  0  0
  9 10  2  0  0  0
 12 13  2  0  0  0
 12 17  1  0  0  0
 13 14  1  0  0  0
 14 15  2  0  0  0
 15 16  1  0  0  0
 16 17  2  0  0  0
 18 19  1  0  0  0
  8 11  1  0  0  0
M  END
> <minimizedAffinity>
-8.79401

$$$$
gleevec.pdb


 31 34  0  0  0  0  0  0  0  0999 V2000
   16.5384   51.8610   14.6678 C   0  0  0  0  0  0  0  0  0  0  0  0
   17.1985   50.9003   15.5042 C   0  0  0  0  0  0  0  0  0  0  0  0
   16.4330   50.0703   16.3815 C   0  0  0  0  0  0  0  0  0  0  0  0
   15.0622   50.2282   16.4083 C   0  0  0  0  0  0  0  0  0  0  0  0
   14.4147   51.1654   15.5897 C   0  0  0  0  0  0  0  0  0  0  0  0
   15.1435   52.0079   14.7190 C   0  0  0  0  0  0  0  0  0  0  0  0
   14.3164   52.9816   13.9076 C   0  0  0  0  0  0  0  0  0  0  0  0
   17.0293   49.1454   17.2557 N   0  0  0  0  0  0  0  0  0  0  0  0
   16.6260   47.9297   17.6163 C   0  0  0  0  0  0  0  0  0  0  0  0
   15.5894   47.3994   17.2305 O   0  0  0  0  0  0  0  0  0  0  0  0
   17.8747   49.4424   17.6636 H   0  0  0  0  0  0  0  0  0  0  0  0
   17.4936   47.1344   18.4871 C   0  0  0  0  0  0  0  0  0  0  0  0
   18.8536   46.9083   18.1203 C   0  0  0  0  0  0  0  0  0  0  0  0
   19.7049   46.1560   18.9621 C   0  0  0  0  0  0  0  0  0  0  0  0
   19.1829   45.6396   20.1750 C   0  0  0  0  0  0  0  0  0  0  0  0
   17.8749   45.8737   20.5037 N   0  0  0  0  0  0  0  0  0  0  0  0
   17.0337   46.5973   19.7007 C   0  0  0  0  0  0  0  0  0  0  0  0
   17.3438   52.6427   13.8344 N   0  0  0  0  0  0  0  0  0  0  0  0
   17.8056   52.2001   13.0861 H   0  0  0  0  0  0  0  0  0  0  0  0
   16.7518   56.2042   13.7642 C   0  0  0  0  0  0  0  0  0  0  0  0
   16.6089   54.8537   13.6143 N   0  0  0  0  0  0  0  0  0  0  0  0
   17.5234   53.9672   13.9978 C   0  0  0  0  0  0  0  0  0  0  0  0
   18.6776   54.4330   14.5758 N   0  0  0  0  0  0  0  0  0  0  0  0
   18.9025   55.7577   14.7648 C   0  0  0  0  0  0  0  0  0  0  0  0
   17.9312   56.6879   14.3577 C   0  0  0  0  0  0  0  0  0  0  0  0
   14.6005   59.2425   13.0443 C   0  0  0  0  0  0  0  0  0  0  0  0
   13.5559   58.6096   12.3407 C   0  0  0  0  0  0  0  0  0  0  0  0
   13.5861   57.2717   12.1347 N   0  0  0  0  0  0  0  0  0  0  0  0
   14.6037   56.4894   12.5853 C   0  0  0  0  0  0  0  0  0  0  0  0
   15.6866   57.0616   13.3006 C   0  0  0  0  0  0  0  0  0  0  0  0
   15.6752   58.4543   13.5269 C   0  0  0  0  0  0  0  0  0  0  0  0
 26 27  2  0  0  0
 26 31  1  0  0  0
 27 28  1  0  0  0
 28 29  2  0  0  0
 29 30  1  0  0  0
 30 31  2  0  0  0
 30 20  1  0  0  0
 20 21  2  0  0  0
 20 25  1  0  0  0
 21 22  2  0  0  0
 22 23  2  0  0  0
 22 18  1  0  0  0
 23 24  1  0  0  0
 24 25  2  0  0  0
 18  1  1  0  0  0
  1  2  2  0  0  0
  1  6  1  0  0  0
  2  3  1  0  0  0
  3  4  2  0  0  0
  3  8  1  0  0  0
  4  5  1  0  0  0
  5  6  2  0  0  0
  6  7  1  0  0  0
  8  9  1  0  0  0
  9 12  1  0  0  0
  9 10  2  0  0  0
 12 13  2  0  0  0
 12 17  1  0  0  0
 13 14  1  0  0  0
 14 15  2  0  0  0
 15 16  1  0  0  0
 16 17  2  0  0  0
 18 19  1  0  0  0
  8 11  1  0  0  0
M  END
> <minimizedAffinity>
-8.50521

$$$$
gleevec.pdb


 31 34  0  0  0  0  0  0  0  0999 V2000
   16.4831   51.3191   15.4974 C   0  0  0  0  0  0  0  0  0  0  0  0
   17.1009   50.2580   16.2395 C   0  0  0  0  0  0  0  0  0  0  0  0
   16.2923   49.2640   16.8739 C   0  0  0  0  0  0  0  0  0  0  0  0
   14.9201   49.3621   16.7633 C   0  0  0  0  0  0  0  0  0  0  0  0
   14.3141   50.3975   16.0364 C   0  0  0  0  0  0  0  0  0  0  0  0
   15.0849   51.4013   15.4061 C   0  0  0  0  0  0  0  0  0  0  0  0
   14.2977   52.4646   14.6708 C   0  0  0  0  0  0  0  0  0  0  0  0
   16.8407   48.2294   17.6512 N   0  0  0  0  0  0  0  0  0  0  0  0
   17.9476   48.2117   18.3895 C   0  0  0  0  0  0  0  0  0  0  0  0
   18.7251   49.1542   18.4975 O   0  0  0  0  0  0  0  0  0  0  0  0
   16.3274   47.3893   17.6491 H   0  0  0  0  0  0  0  0  0  0  0  0
   18.2435   47.0142   19.1781 C   0  0  0  0  0  0  0  0  0  0  0  0
   19.5637   46.4737   19.1812 C   0  0  0  0  0  0  0  0  0  0  0  0
   19.8646   45.3275   19.9526 C   0  0  0  0  0  0  0  0  0  0  0  0
   18.8336   44.7341   20.7240 C   0  0  0  0  0  0  0  0  0  0  0  0
   17.5762   45.2748   20.7047 N   0  0  0  0  0  0  0  0  0  0  0  0
   17.2641   46.3825   19.9620 C   0  0  0  0  0  0  0  0  0  0  0  0
   17.3292   52.2598   14.9030 N   0  0  0  0  0  0  0  0  0  0  0  0
   18.1927   52.4477   15.3368 H   0  0  0  0  0  0  0  0  0  0  0  0
   16.1878   54.8523   12.6634 C   0  0  0  0  0  0  0  0  0  0  0  0
   16.5038   54.1452   13.7890 N   0  0  0  0  0  0  0  0  0  0  0  0
   17.0294   52.9234   13.7704 C   0  0  0  0  0  0  0  0  0  0  0  0
   17.2673   52.3370   12.5527 N   0  0  0  0  0  0  0  0  0  0  0  0
   16.9854   52.9670   11.3845 C   0  0  0  0  0  0  0  0  0  0  0  0
   16.4312   54.2579   11.4125 C   0  0  0  0  0  0  0  0  0  0  0  0
   15.7285   58.5303   13.4627 C   0  0  0  0  0  0  0  0  0  0  0  0
   14.3840   58.6748   13.0648 C   0  0  0  0  0  0  0  0  0  0  0  0
   13.7018   57.6141   12.5719 N   0  0  0  0  0  0  0  0  0  0  0  0
   14.2675   56.3842   12.4381 C   0  0  0  0  0  0  0  0  0  0  0  0
   15.6165   56.1691   12.8193 C   0  0  0  0  0  0  0  0  0  0  0  0
   16.3462   57.2608   13.3359 C   0  0  0  0  0  0  0  0  0  0  0  0
 26 27  2  0  0  0
 26 31  1  0  0  0
 27 28  1  0  0  0
 28 29  2  0  0  0
 29 30  1  0  0  0
 30 31  2  0  0  0
 30 20  1  0  0  0
 20 21  2  0  0  0
 20 25  1  0  0  0
 21 22  2  0  0  0
 22 23  2  0  0  0
 22 18  1  0  0  0
 23 24  1  0  0  0
 24 25  2  0  0  0
 18  1  1  0  0  0
  1  2  2  0  0  0
  1  6  1  0  0  0
  2  3  1  0  0  0
  3  4  2  0  0  0
  3  8  1  0  0  0
  4  5  1  0  0  0
  5  6  2  0  0  0
  6  7  1  0  0  0
  8  9  1  0  0  0
  9 12  1  0  0  0
  9 10  2  0  0  0
 12 13  2  0  0  0
 12 17  1  0  0  0
 13 14  1  0  0  0
 14 15  2  0  0  0
 15 16  1  0  0  0
 16 17  2  0  0  0
 18 19  1  0  0  0
  8 11  1  0  0  0
M  END
> <minimizedAffinity>
-8.48431

$$$$
gleevec.pdb


 31 34  0  0  0  0  0  0  0  0999 V2000
   13.9025   48.3342   19.2124 C   0  0  0  0  0  0  0  0  0  0  0  0
   14.4005   49.3517   18.3320 C   0  0  0  0  0  0  0  0  0  0  0  0
   13.6779   49.6861   17.1444 C   0  0  0  0  0  0  0  0  0  0  0  0
   12.5117   49.0017   16.8683 C   0  0  0  0  0  0  0  0  0  0  0  0
   12.0219   48.0081   17.7288 C   0  0  0  0  0  0  0  0  0  0  0  0
   12.7178   47.6471   18.9054 C   0  0  0  0  0  0  0  0  0  0  0  0
   12.0817   46.5488   19.7300 C   0  0  0  0  0  0  0  0  0  0  0  0
   14.1417   50.6409   16.2232 N   0  0  0  0  0  0  0  0  0  0  0  0
   15.3731   50.8611   15.7697 C   0  0  0  0  0  0  0  0  0  0  0  0
   16.3661   50.2348   16.1251 O   0  0  0  0  0  0  0  0  0  0  0  0
   13.4497   51.2380   15.8576 H   0  0  0  0  0  0  0  0  0  0  0  0
   15.5659   51.8779   14.7340 C   0  0  0  0  0  0  0  0  0  0  0  0
   14.7297   53.0335   14.7083 C   0  0  0  0  0  0  0  0  0  0  0  0
   14.9181   54.0297   13.7228 C   0  0  0  0  0  0  0  0  0  0  0  0
   15.9543   53.8600   12.7701 C   0  0  0  0  0  0  0  0  0  0  0  0
   16.7436   52.7428   12.8193 N   0  0  0  0  0  0  0  0  0  0  0  0
   16.5753   51.7653   13.7639 C   0  0  0  0  0  0  0  0  0  0  0  0
   14.6567   48.0533   20.3554 N   0  0  0  0  0  0  0  0  0  0  0  0
   14.4783   48.5765   21.1700 H   0  0  0  0  0  0  0  0  0  0  0  0
   17.8626   46.4187   20.0551 C   0  0  0  0  0  0  0  0  0  0  0  0
   16.8632   47.3497   20.0186 N   0  0  0  0  0  0  0  0  0  0  0  0
   15.6136   47.1072   20.4047 C   0  0  0  0  0  0  0  0  0  0  0  0
   15.3079   45.8510   20.8648 N   0  0  0  0  0  0  0  0  0  0  0  0
   16.2384   44.8660   20.9365 C   0  0  0  0  0  0  0  0  0  0  0  0
   17.5565   45.1302   20.5276 C   0  0  0  0  0  0  0  0  0  0  0  0
   21.4123   46.3177   18.7259 C   0  0  0  0  0  0  0  0  0  0  0  0
   21.6926   47.6989   18.7444 C   0  0  0  0  0  0  0  0  0  0  0  0
   20.7561   48.5783   19.1719 N   0  0  0  0  0  0  0  0  0  0  0  0
   19.5254   48.1818   19.5946 C   0  0  0  0  0  0  0  0  0  0  0  0
   19.1774   46.8069   19.6019 C   0  0  0  0  0  0  0  0  0  0  0  0
   20.1386   45.8728   19.1607 C   0  0  0  0  0  0  0  0  0  0  0  0
 26 27  2  0  0  0
 26 31  1  0  0  0
 27 28  1  0  0  0
 28 29  2  0  0  0
 29 30  1  0  0  0
 30 31  2  0  0  0
 30 20  1  0  0  0
 20 21  2  0  0  0
 20 25  1  0  0  0
 21 22  2  0  0  0
 22 23  2  0  0  0
 22 18  1  0  0  0
 23 24  1  0  0  0
 24 25  2  0  0  0
 18  1  1  0  0  0
  1  2  2  0  0  0
  1  6  1  0  0  0
  2  3  1  0  0  0
  3  4  2  0  0  0
  3  8  1  0  0  0
  4  5  1  0  0  0
  5  6  2  0  0  0
  6  7  1  0  0  0
  8  9  1  0  0  0
  9 12  1  0  0  0
  9 10  2  0  0  0
 12 13  2  0  0  0
 12 17  1  0  0  0
 13 14  1  0  0  0
 14 15  2  0  0  0
 15 16  1  0  0  0
 16 17  2  0  0  0
 18 19  1  0  0  0
  8 11  1  0  0  0
M  END
> <minimizedAffinity>
-8.48282

$$$$
gleevec.pdb


 31 34  0  0  0  0  0  0  0  0999 V2000
   16.4763   48.8962   16.8286 C   0  0  0  0  0  0  0  0  0  0  0  0
   16.4943   50.1642   16.1577 C   0  0  0  0  0  0  0  0  0  0  0  0
   15.2875   50.9192   16.0231 C   0  0  0  0  0  0  0  0  0  0  0  0
   14.1204   50.3931   16.5386 C   0  0  0  0  0  0  0  0  0  0  0  0
   14.1010   49.1545   17.1969 C   0  0  0  0  0  0  0  0  0  0  0  0
   15.2748   48.3790   17.3376 C   0  0  0  0  0  0  0  0  0  0  0  0
   15.1030   47.0575   18.0551 C   0  0  0  0  0  0  0  0  0  0  0  0
   15.2372   52.1443   15.3361 N   0  0  0  0  0  0  0  0  0  0  0  0
   15.1969   52.3884   14.0287 C   0  0  0  0  0  0  0  0  0  0  0  0
   15.2191   51.5227   13.1599 O   0  0  0  0  0  0  0  0  0  0  0  0
   15.2308   52.9442   15.9100 H   0  0  0  0  0  0  0  0  0  0  0  0
   15.0591   53.7751   13.5798 C   0  0  0  0  0  0  0  0  0  0  0  0
   13.7610   54.3453   13.4220 C   0  0  0  0  0  0  0  0  0  0  0  0
   13.6167   55.6887   13.0052 C   0  0  0  0  0  0  0  0  0  0  0  0
   14.7832   56.4548   12.7554 C   0  0  0  0  0  0  0  0  0  0  0  0
   16.0165   55.8835   12.9172 N   0  0  0  0  0  0  0  0  0  0  0  0
   16.1773   54.5834   13.3171 C   0  0  0  0  0  0  0  0  0  0  0  0
   17.6888   48.2072   16.9250 N   0  0  0  0  0  0  0  0  0  0  0  0
   17.9829   47.6738   16.1515 H   0  0  0  0  0  0  0  0  0  0  0  0
   19.4645   47.1356   19.8810 C   0  0  0  0  0  0  0  0  0  0  0  0
   18.6715   47.1523   18.7685 N   0  0  0  0  0  0  0  0  0  0  0  0
   18.4770   48.2321   18.0164 C   0  0  0  0  0  0  0  0  0  0  0  0
   19.1064   49.3970   18.3770 N   0  0  0  0  0  0  0  0  0  0  0  0
   19.9128   49.4706   19.4658 C   0  0  0  0  0  0  0  0  0  0  0  0
   20.1139   48.3254   20.2547 C   0  0  0  0  0  0  0  0  0  0  0  0
   18.7167   43.7732   21.4662 C   0  0  0  0  0  0  0  0  0  0  0  0
   19.9678   43.5321   22.0691 C   0  0  0  0  0  0  0  0  0  0  0  0
   20.9691   44.4350   21.9448 N   0  0  0  0  0  0  0  0  0  0  0  0
   20.8213   45.5933   21.2469 C   0  0  0  0  0  0  0  0  0  0  0  0
   19.5886   45.8986   20.6154 C   0  0  0  0  0  0  0  0  0  0  0  0
   18.5313   44.9717   20.7323 C   0  0  0  0  0  0  0  0  0  0  0  0
 26 27  2  0  0  0
 26 31  1  0  0  0
 27 28  1  0  0  0
 28 29  2  0  0  0
 29 30  1  0  0  0
 30 31  2  0  0  0
 30 20  1  0  0  0
 20 21  2  0  0  0
 20 25  1  0  0  0
 21 22  2  0  0  0
 22 23  2  0  0  0
 22 18  1  0  0  0
 23 24  1  0  0  0
 24 25  2  0  0  0
 18  1  1  0  0  0
  1  2  2  0  0  0
  1  6  1  0  0  0
  2  3  1  0  0  0
  3  4  2  0  0  0
  3  8  1  0  0  0
  4  5  1  0  0  0
  5  6  2  0  0  0
  6  7  1  0  0  0
  8  9  1  0  0  0
  9 12  1  0  0  0
  9 10  2  0  0  0
 12 13  2  0  0  0
 12 17  1  0  0  0
 13 14  1  0  0  0
 14 15  2  0  0  0
 15 16  1  0  0  0
 16 17  2  0  0  0
 18 19  1  0  0  0
  8 11  1  0  0  0
M  END
> <minimizedAffinity>
-8.27454

$$$$
